FoamFile
{
	version	2.0;
	format	ascii;
	class	dictionary;
	location	"system";
	object	blockMeshDict;
}
vertices	(
	(-0.013 -0.0075 -0.0075)
	(0.013 -0.0075 -0.0075)
	(0.013 0.0075 -0.0075)
	(-0.013 0.0075 -0.0075)
	(-0.013 -0.0075 0.0075)
	(0.013 -0.0075 0.0075)
	(0.013 0.0075 0.0075)
	(-0.013 0.0075 0.0075)
);
blocks	(
	hex	(0 1 2 3 4 5 6 7) (30 20 20) simpleGrading (1 1 1)
);
edges	();
boundary	(
	boundaries
	{
		type	patch;
		faces	(
			(0 3 2 1)
			(2 6 5 1)
			(0 4 7 3)
			(3 7 6 2)
			(4 5 6 7)
			(1 5 4 0)
		);
	}
);
