/*--------------------------------*- C++ -*----------------------------------*\
| =========                 |                                                 |
| \\      /  F ield         | OpenFOAM: The Open Source CFD Toolbox           |
|  \\    /   O peration     | Version:  2406                                  |
|   \\  /    A nd           | Website:  www.openfoam.com                      |
|    \\/     M anipulation  |                                                 |
\*---------------------------------------------------------------------------*/
FoamFile
{
    version     2.0;
    format      ascii;
    arch        "LSB;label=32;scalar=64";
    class       dictionary;
    location    "system";
    object      decomposeParDict;
}
// * * * * * * * * * * * * * * * * * * * * * * * * * * * * * * * * * * * * * //

numberOfSubdomains 16;

method          scotch; // Decomposition method (scotch, hierarchical, etc.)

simpleCoeffs
{
    n           (4 2 2); // Number of subdivisions in each direction
    delta       0.001;   // Optional: Weighting factor
}

hierarchicalCoeffs
{
    n           (4 2 2); // Number of subdivisions in each direction
    delta       0.001;   // Optional: Weighting factor
    order       xyz;     // Order of subdivision
}

scotchCoeffs
{
    // No additional settings needed for scotch
}
