FoamFile
{
	version	2.0;
	class	dictionary;
	format	ascii;
	location	"constant";
	object	thermophysicalProperties;
}
thermoType
{
	type	hePsiThermo;
	mixture	pureMixture;
	transport	sutherland;
	thermo	janaf;
	equationOfState	PengRobinsonGas;
	specie	specie;
	energy	sensibleEnthalpy;
}
mixture
{
	specie
	{
		nMoles	1.0;
		molWeight	4.0;
	}
	thermodynamics
	{
		highCpCoeffs	( 3.0879 0.0012459 -4.2372E-7 6.7477E-11 -3.9708E-15 -995.26 5.9596 );
		Sf	0.0;
		Tcommon	273.0;
		Thigh	1000.0;
		Tlow	100.0;
		lowCpCoeffs	( 3.5683 -6.7873E-4 1.5537E-6 -3.2994E-12 -4.664E-13 -1062.3 3.7158 );
	}
	transport
	{
		As	8.6E-7;
		Ts	273.0;
	}
	equationOfState
	{
		Pc	930000.0;
		Vc	3.52E-5;
		omega	-0.39;
		Tc	5.2;
	}
}
