FoamFile
{
	class	dictionary;
	format	ascii;
	location	system;
	object	controlDict;
	version	2.0;
}
adjustTimeStep	false;
application	rhoCentralFoam;
deltaT	1;
endTime	1;
maxCo	2.0;
maxDeltaT	1.0;
purgeWrite	0;
startFrom	latestTime;
startTime	0;
stopAt	endTime;
timeFormat	general;
timePrecision	6;
writeControl	adjustableRunTime;
writeInterval	1;
writePrecision	7;
runTimeModifiable	true;
timeFormat	general;
timePrecision	6;
writeCompression	false;
writeFormat	binary;
writePrecision	7;
libs	("libfvMotionSolvers.so" "libturbulenceModels.so" "libturbulenceModelSchemes.so");
OptimisationSwitches
{
	fileHandler	uncollated;
	fileModificationSkew	0;
	maxMasterFileBufferSize	1.0E9;
	maxThreadFileBufferSize	1.0E9;
	mpiBufferSize	200000000;
}
