FoamFile
{
	version	2.0;
	class	dictionary;
	format	ascii;
	location	"system";
	object	fvSolution;
}
solvers
{
	rho
	{
		solver	diagonal;
	}
	rhoU
	{
		solver	diagonal;
	}
	rhoE
	{
		solver	diagonal;
	}
	U
	{
		solver	PCG;
		relTol	0.001;
		preconditioner	DIC;
		tolerance	1.0E-4;
		maxIter	1000;
	}
	h
	{
		solver	PCG;
		relTol	0.001;
		preconditioner	DIC;
		tolerance	1.0E-4;
		maxIter	1000;
	}
	rho
	{
		solver	diagonal;
	}
	rhoU
	{
		solver	diagonal;
	}
	rhoE
	{
		solver	diagonal;
	}
	k
	{
		solver	PBiCGStab;
		relTol	0.001;
		preconditioner	DILU;
		tolerance	1.0E-4;
		maxIter	1000;
	}
	epsilon
	{
		solver	PBiCGStab;
		relTol	0.001;
		preconditioner	DILU;
		tolerance	1.0E-4;
		maxIter	1000;
	}
}
relaxationFactors
{
	k	1.0;
	epsilon	1.0;
}
