FoamFile
{
	version	2.0;
	format	ascii;
	class	polyBoundaryMesh;
	location	"constant/polyMesh";
	object	boundary;
}
4
(
	GasJetSmaller_in
	{
		type	patch;
		startFace	145180;
		nFaces	420;
	}
	GasJetSmaller_out
	{
		type	patch;
		startFace	145600;
		nFaces	6355;
	}
	GasJetSmaller_dyn_wall
	{
		type	wall;
		startFace	151955;
		nFaces	5093;
	}
	GasJetSmaller_nil_wall
	{
		type	wall;
		startFace	157048;
		nFaces	4579;
	}
)